data/projects/lehigh4mgs/circuit_plusmg_2.dss
clear
set defaultbasefrequency=60
new object=circuit.lehigh basekv=115 pu=1.0001 phases=3 bus1=sourcebus angle=30 mvasc3=20000 mvasc1=21000
edit object=vsource.source basekv=115 bus1=sourcebus.1.2.3 pu=1.00 r1=0 x1=0.0001 r0=0 x0=0.0001
new object=vsource.secondsource basekv=4.16 bus1=680.1.2.3 pu=1.00 r1=0 x1=0.0001 r0=0 x0=0.0001
new object=transformer.sub phases=3 windings=2 xhl=0.008 buses=[sourcebus.1.2.3,650.1.2.3] conns=[delta,wye] kvs=[115,4.16] kvas=[5000,5000] %rs=[0.0005,0.0005]
new object=transformer.reg1 phases=1 bank=reg1 xhl=0.01 kvas=[1666,1666] buses=[650.1,rg60.1] kvs=[2.4,2.4] %loadloss=0.01
new object=regcontrol.reg1 transformer=reg1 winding=2 vreg=121 band=2 ptratio=20 ctprim=700 r=3 x=9
new object=transformer.reg2 phases=1 bank=reg1 xhl=0.01 kvas=[1666,1666] buses=[650.2,rg60.2] kvs=[2.4,2.4] %loadloss=0.01
new object=regcontrol.reg2 transformer=reg2 winding=2 vreg=121 band=2 ptratio=20 ctprim=700 r=3 x=9
new object=transformer.reg3 phases=1 bank=reg1 xhl=0.01 kvas=[1666,1666] buses=[650.3,rg60.3] kvs=[2.4,2.4] %loadloss=0.01
new object=regcontrol.reg3 transformer=reg3 winding=2 vreg=121 band=2 ptratio=20 ctprim=700 r=3 x=9
new object=transformer.xfm1 phases=3 windings=2 xhl=2 buses=[633.1.2.3,634.1.2.3] conns=[wye,wye] kvs=[4.16,0.480] kvas=[500,500] %rs=[0.55,0.55] xht=1 xlt=1
new object=linecode.mtx601 nphases=3 basefreq=60 rmatrix=[0.3465|0.1560,0.3375|0.1580,0.1535,0.3414] xmatrix=[1.0179|0.5017,1.0478|0.4236,0.3849,1.0348] units=mi
new object=linecode.mtx602 nphases=3 basefreq=60 rmatrix=[0.7526|0.1580,0.7475|0.1560,0.1535,0.7436] xmatrix=[1.1814|0.4236,1.1983|0.5017,0.3849,1.2112] units=mi
new object=linecode.mtx603 nphases=2 basefreq=60 rmatrix=[1.3238|0.2066,1.3294] xmatrix=[1.3569|0.4591,1.3471] units=mi
new object=linecode.mtx604 nphases=2 basefreq=60 rmatrix=[1.3238|0.2066,1.3294] xmatrix=[1.3569|0.4591,1.3471] units=mi
new object=linecode.mtx605 nphases=1 basefreq=60 rmatrix=[1.3292] xmatrix=[1.3475] units=mi
new object=linecode.mtx606 nphases=3 units=mi rmatrix=[0.791721|0.318476,0.781649|0.28345,0.318476,0.791721] xmatrix=[0.438352|0.0276838,0.396697|-0.0184204,0.0276838,0.438352] cmatrix=[383.948|0,383.948|0,0,383.948]
new object=linecode.mtx607 nphases=1 basefreq=60 rmatrix=[1.3425] xmatrix=[0.5124] cmatrix=[236] units=mi
new object=loadshape.solar_634_shape npts=8760 interval=1 useactual=yes mult=[0.0,0.0,0.0,0.0,0.0,0.0,0.0,0.0,1.3827195741509593,4.192388899234553,5.917997653388218,18.18576373350958,4.170273810843715,9.745382284229228,14.579529986576947,15.69665788014842,7.84285282294886,0.5198098871294086,0.0,0.0,0.0,0.0,0.0,0.0,0.0,0.0,0.0,0.0,0.0,0.0,0.0,0.0,3.628348835323469,9.21440954295968,12.898151409204962,0.5088576528787078,27.687669425550155,9.900398522854529,35.95091954781437,24.723194481730697,13.052957027940828,1.1173385134609044,0.0,0.0,0.0,0.0,0.0,0.0,0.0,0.0,0.0,0.0,0.0,0.0,0.0,0.0,10.641569913781751,24.811654835294046,32.96432951560408,13.971049125994757,24.844932777825026,24.77858751265251,20.243098813525815,17.577282872927388,9.22557239709982,0.7300085367870868,0.0,0.0,0.0,0.0,0.0,0.0,0.0,0.0,0.0,0.0,0.0,0.0,0.0,0.0,16.194563298776426,37.101325383916816,52.676455587860346,62.39993340358816,66.10557973833487,64.35785589579035,56.61441566065554,43.395700779728145,23.650296764940904,4.646064141080885,0.0,0.0,0.0,0.0,0.0,0.0,0.0,0.0,0.0,0.0,0.0,0.0,0.0,0.0,17.610350195568923,39.29156161416751,55.2870891174264,64.97728899062324,68.51696685249392,66.09441688419473,57.79809943928896,44.05936405134272,23.871447648849283,4.5352780792372585,0.0,0.0,0.0,0.0,0.0,0.0,0.0,0.0,0.0,0.0,0.0,0.0,0.0,0.0,13.915866714962377,32.95316666146394,51.65874028210293,46.29383045837509,52.33356640785764,53.98187766258809,54.19207631224577,41.11679357602466,22.25641433664981,4.1593215765930145,0.0,0.0,0.0,0.0,0.0,0.0,0.0,0.0,0.0,0.0,0.0,0.0,0.0,0.0,14.126065364620056,14.026442156916568,50.12121508921611,57.48827758192779,51.48181957497623,49.29158334472553,41.548353729480155,21.23869903089239,11.216772831832976,1.1946360128841187,0.0,0.0,0.0,0.0,0.0,0.0,0.0,0.0,0.0,0.0,0.0,0.0,0.0,0.0,14.38049419105941,33.528580199404594,8.849405274566138,11.659285219539168,26.094961821630953,30.231957689943695,24.767424658512372,16.05070991429126,8.517678948703571,0.9844373632264406,0.0,0.0,0.0,0.0,0.0,0.0,0.0,0.0,0.0,0.0,0.0,0.0,0.0,0.0,14.778565782094494,33.92665179043968,18.18576373350958,38.683291373474745,30.29830295511621,14.148180453010896,18.14132293683847,15.176847993019011,7.864967911339697,3.71680918888682,0.0,0.0,0.0,0.0,0.0,0.0,0.0,0.0,0.0,0.0,0.0,0.0,0.0,0.0,6.847252605582281,16.924571835563512,27.267482746124234,46.73634284608129,27.123629361639072,35.41994680654482,35.973034636205206,29.02636944280887,16.194563298776426,2.842947267614569,0.0,0.0,0.0,0.0,0.0,0.0,0.0,0.0,0.0,0.0,0.0,0.0,0.0,0.0,17.83171169936674,39.468692941183654,55.24285894064472,64.74497525257472,68.24042293766372,66.10557973833487,58.38446521148031,45.45303585974438,26.97977597715391,6.64821681006474,0.0,0.0,0.0,0.0,0.0,0.0,0.0,0.0,0.0,0.0,0.0,0.0,0.0,0.0,16.47110721360662,37.41114724127798,52.49953488073364,63.660914681644805,67.55464457765832,66.05018670741303,58.52810797607605,44.31379287778207,26.349390648070308,6.548593602361252,0.0,0.0,0.0,0.0,0.0,0.0,0.0,0.0,0.0,0.0,0.0,0.0,0.0,0.0,16.11705517946378,36.990749941962626,52.09008981566898,48.05271715505973,53.34011885947491,48.50618177701663,43.771657282372395,34.92225200780625,20.718889143762983,5.0110684094744276,0.0,0.0,0.0,0.0,0.0,0.0,0.0,0.0,0.0,0.0,0.0,0.0,0.0,0.0,6.714562075237254,15.9068565298061,28.827123027401896,36.74748396966341,42.10144155914054,38.63906119669308,22.85373234309187,18.605950412935503,10.497716529296587,1.714656519902964,0.0,0.0,0.0,0.0,0.0,0.0,0.0,0.0,0.0,0.0,0.0,0.0,0.0,0.0,3.5398884817601166,9.502116311930012,44.13687217065537,55.0214974368469,63.55012861980117,63.04148158681191,56.315756657434505,43.97090369777937,25.63033434553392,6.4822483371887385,0.0,0.0,0.0,0.0,0.0,0.0,0.0,0.0,0.0,0.0,0.0,0.0,0.0,0.0,14.657038105889605,34.05934232078471,48.04176492080904,40.63026163142622,47.754058151838706,62.17857189979034,37.57711571415398,17.16804842775217,9.6126917538842,1.7367716082938016,0.0,0.0,0.0,0.0,0.0,0.0,0.0,0.0,0.0,0.0,0.0,0.0,0.0,0.0,15.154732904628174,36.44882496644238,53.20742832912989,64.84459846027822,67.31116798546967,65.585559231316,58.24061182699515,45.82920298227806,26.835922592668744,6.991105990067445,0.0,0.0,0.0,0.0,0.0,0.0,0.0,0.0,0.0,0.0,0.0,0.0,0.0,0.0,16.54861533291927,37.27845671093296,53.93743686591697,63.882065565553184,67.8644664350195,66.16097276925666,59.380065428846905,46.49286625389263,27.31171292290591,7.212256873975825,0.0,0.0,0.0,0.0,0.0,0.0,0.0,0.0,0.0,0.0,0.0,0.0,0.0,0.0,17.45554457683306,39.13675599543165,54.88880690650188,64.26918492233756,70.4085440795236,68.60563782594672,60.972773032766106,46.6367196383778,28.69443249705687,7.864967911339697,0.0,0.0,0.0,0.0,0.0,0.0,0.0,0.0,0.0,0.0,0.0,0.0,0.0,0.0,17.134770485221193,38.21866389737771,53.43974206717841,62.57685411071487,65.99479367649123,64.01496671578764,57.06809090250187,44.999571237787485,27.267482746124234,7.333995170070151,0.0,0.0,0.0,0.0,0.0,0.0,0.0,0.0,0.0,0.0,0.0,0.0,0.0,0.0,4.413750403032368,11.050804358956972,16.736488274296672,9.557509342851825,27.70999513383043,7.389388200991966,7.710162292603832,0.1105754419541894,0.0,0.0,0.0,0.0,0.0,0.0,0.0,0.0,0.0,0.0,0.0,0.0,0.0,0.0,0.0,0.0,4.070861223029662,11.957733602870762,33.79396126009465,36.094772932299534,68.1410103498497,66.66961980224595,31.504101822140463,27.333828011296745,15.895904295555397,3.52872562761998,0.0,0.0,0.0,0.0,0.0,0.0,0.0,0.0,0.0,0.0,0.0,0.0,0.0,0.0,4.601623344409772,11.93582913436936,13.871636538180702,34.52396979688174,72.84225690196294,71.61434294654785,63.91534350808416,50.453152034968106,30.442156339601375,8.62825439065776,0.0,0.0,0.0,0.0,0.0,0.0,0.0,0.0,0.0,0.0,0.0,0.0,0.0,0.0,18.252108998682097,40.187749243720035,56.005934800073355,65.48614664350195,69.4352695704373,67.75368037317587,60.685276883685205,48.10789956609211,30.132545102129644,8.8272901861753,0.0,0.0,0.0,0.0,0.0,0.0,0.0,0.0,0.0,0.0,0.0,0.0,0.0,0.0,17.389199311660544,38.40674745864456,53.428789832927706,62.62108428749654,66.39328650730518,64.57900677969872,57.986183000555805,46.27171536998426,28.926746235105387,8.528631182954271,0.0,0.0,0.0,0.0,0.0,0.0,0.0,0.0,0.0,0.0,0.0,0.0,0.0,0.0,11.53754692344484,26.44880323588436,30.486386516383053,45.25400006422684,50.66314006473635,48.55041195379831,44.20321743582789,32.510654273757744,19.911372487663247,5.685683915339701,0.0,0.0,0.0,0.0,0.0,0.0,0.0,0.0,0.0,0.0,0.0,0.0,0.0,0.0,13.716620299555402,32.046237417550145,31.05063720018357,57.67636114319463,60.85124535656121,44.147824404906075,6.128196303045896,42.91991044949098,25.35379043070373,7.1349593745526105,0.0,0.0,0.0,0.0,0.0,0.0,0.0,0.0,0.0,0.0,0.0,0.0,0.0,0.0,3.8827776617628222,6.249934599140222,9.42460819261736,14.568367132436814,11.504268980913867,7.986706207434024,8.097281649388213,3.1416062708355987,1.615033312199475,0.0332779425309751,0.0,0.0,0.0,0.0,0.0,0.0,0.0,0.0,0.0,0.0,0.0,0.0,0.0,0.0,18.274224087072938,39.82253435543706,55.44189473616227,65.09881666682813,69.03698735951278,67.49946216662595,61.07239624046957,49.08138469506785,30.209842601552857,9.568461577102523,0.0,0.0,0.0,0.0,0.0,0.0,0.0,0.0,0.0,0.0,0.0,0.0,0.0,0.0,17.35613198901901,38.37346951611359,53.69417089361776,62.89762820232673,66.74712792155859,65.37557120154777,58.87120777596819,37.78731436381166,25.143591781046055,9.502116311930012,0.0,0.0,0.0,0.0,0.0,0.0,0.0,0.0,0.0,0.0,0.0,0.0,0.0,0.0,5.420302854649647,16.625912832342486,28.30731314027249,28.65020232027519,36.8580594116176,34.81167656585207,31.426593702827816,22.61046637079265,13.871636538180702,3.9821902495768744,0.0,0.0,0.0,0.0,0.0,0.0,0.0,0.0,0.0,0.0,0.0,0.0,0.0,0.0,18.263061232932795,40.14351906693836,56.890959575485745,66.6475047138551,70.76259611366643,69.53468215825133,62.455115814620534,50.34236597312448,31.3492962034046,10.464438586765612,0.0,0.0,0.0,0.0,0.0,0.0,0.0,0.0,0.0,0.0,0.0,0.0,0.0,0.0,18.32940649810531,39.081573584399266,54.21419140063661,63.528224151299774,67.3223308396098,66.28250044546157,60.02161361207063,48.583689896329275,31.33813334926446,10.66368500217259,0.0,0.0,0.0,0.0,0.0,0.0,0.0,0.0,0.0,0.0,0.0,0.0,0.0,0.0,18.196715967760284,15.785328853601207,37.0240278844936,46.00612368940476,52.49953488073364,51.426426544054415,44.30263002364193,12.687952759547285,9.170179366178006,6.0508988036226805,0.0,0.0,0.0,0.0,0.0,0.0,0.0,0.0,0.0,0.0,0.0,0.0,0.0,0.0,0.0,14.059509479558107,37.90884204001655,53.163198152348215,69.26930109756128,69.21390806663948,63.41743808945614,51.57027992853958,32.54393221628872,11.44908656988149,0.0,0.0,0.0,0.0,0.0,0.0,0.0,0.0,0.0,0.0,0.0,0.0,0.0,0.0,13.14141738150418,35.04377968401114,52.422026761420994,70.02142472273921,59.16986677918922,66.51481418351007,65.29806308223512,50.71853309565817,19.60155063030208,9.535394254460986,0.0,0.0,0.0,0.0,0.0,0.0,0.0,0.0,0.0,0.0,0.0,0.0,0.0,0.0,9.668084784806013,12.831806144032448,9.668084784806013,14.568367132436814,9.645969696415175,40.27620959728338,36.68113870449089,26.6259345629005,9.247687485490657,1.2721441321967697,0.0,0.0,0.0,0.0,0.0,0.0,0.0,0.0,0.0,0.0,0.0,0.0,0.0,0.0,0.7190563025363861,4.646064141080885,7.267649904897637,26.006290848178164,31.305066026622928,14.579529986576947,21.116960734798067,9.203457308708982,5.586271327525649,10.519831617687426,0.0,0.0,0.0,0.0,0.0,0.0,0.0,0.0,0.0,0.0,0.0,0.0,0.0,0.0,4.579508256018934,4.3583573721105555,16.90245674717268,33.10818290008923,30.36485884017816,37.9863501593292,41.51507578694918,50.06582205829429,32.36701150916202,11.614844422868057,0.0,0.0,0.0,0.0,0.0,0.0,0.0,0.0,0.0,0.0,0.0,0.0,0.0,0.0,3.6725790121051447,9.325195604803309,17.44459234258236,64.9661261364831,24.38030530172799,24.247614771382963,27.521700952674152,20.707726289622848,0.5088576528787078,10.796375532517615,0.0,0.0,0.0,0.0,0.0,0.0,0.0,0.0,0.0,0.0,0.0,0.0,0.0,0.0,5.873767476606543,26.105914055881655,56.42633209938871,67.35560878214078,71.10548529366915,70.76259611366643,64.30246286486853,52.34472926199777,33.882421613658,12.776413113110635,0.0,0.0,0.0,0.0,0.0,0.0,0.0,0.0,0.0,0.0,0.0,0.0,0.0,1.869462138638829,21.537358034113424,42.98646633455293,58.893322864359035,68.21851846916233,72.12320059942655,70.61874272918128,64.20283965716504,52.47741979234281,35.04399030390058,13.429124150474507,0.0,0.0,0.0,0.0,0.0,0.0,0.0,0.0,0.0,0.0,0.0,0.0,0.0,1.9027400811698043,20.76311932054466,41.42661543338583,56.371149688356326,65.48614664350195,69.39082877376617,68.34004614536722,64.269395542227,50.92873174531584,33.81607634848549,13.019679085409852,0.0,0.0,0.0,0.0,0.0,0.0,0.0,0.0,0.0,0.0,0.0,0.0,0.0,2.400434879908375,21.82506480308375,42.997418568803624,59.85564513919463,67.10117995570143,70.77354834791713,59.45736292827012,56.382101922607035,43.21856945271201,34.12589820584665,7.367273112601127,0.0,0.0,0.0,0.0,0.0,0.0,0.0,0.0,0.0,0.0,0.0,0.0,0.0,0.0442301767816757,12.123702075746763,27.754225310612107,39.225426968884435,44.65668205778478,52.70973353039132,55.784783916164976,37.101325383916816,32.63239256985207,23.13027625792206,7.84285282294886,0.0,0.0,0.0,0.0,0.0,0.0,0.0,0.0,0.0,0.0,0.0,0.0,0.0,0.5309727412695457,19.535205365129567,39.170033937962614,54.88880690650188,64.46843133774455,68.45062158732141,67.39983895892246,61.45951559725397,49.67870270150991,31.791597971221364,12.289670548622766,0.0,0.0,0.0,0.0,0.0,0.0,0.0,0.0,0.0,0.0,0.0,0.0,0.0,0.0,2.9092925327870827,4.1260436340620394,13.086234970471802,18.307291409714473,19.524253130878865,23.63913391080077,15.055109696924688,13.064119882080965,13.904703860822242,5.165874028210293,0.0,0.0,0.0,0.0,0.0,0.0,0.0,0.0,0.0,0.0,0.0,0.0,0.0,0.0,0.3207740916118675,14.269708129215786,25.38685775334527,32.86470630790059,49.700817789900746,56.79154698767168,44.43532055398696,54.96631502581453,20.741004232153823,7.101681432021636,0.0,0.0,0.0,0.0,0.0,0.0,0.0,0.0,0.0,0.0,0.0,0.0,0.0,2.334089614735861,7.2455348165068,15.619360380725208,27.532863806814294,38.10808845542353,73.70495596909505,71.16087832459095,64.83343560613808,53.284936448442544,35.95091954781437,14.5020218672643,0.0,0.0,0.0,0.0,0.0,0.0,0.0,0.0,0.0,0.0,0.0,0.0,0.0,2.986800652099733,22.156791128946317,42.85356518431847,57.68752399733477,66.74712792155859,69.96624231170685,68.58352273755588,62.72070749520003,51.526049751757895,34.81167656585207,14.11490251047992,0.0,0.0,0.0,0.0,0.0,0.0,0.0,0.0,0.0,0.0,0.0,0.0,0.0,2.7212089715202423,8.429218595140219,35.265141187808965,42.621251446269945,65.91749617706802,69.37987653951548,68.15196258410037,62.22280207657203,51.072585129801006,34.557247739412716,13.417961296334372,0.0,0.0,0.0,0.0,0.0,0.0,0.0,0.0,0.0,0.0,0.0,0.0,0.0,1.205798867024256,4.480095668204882,22.04621568699213,20.741004232153823,28.639039466135056,39.313676702558354,32.057189651800854,40.89564269211628,20.154638459962463,6.2832125416711975,0.0111628541401372,0.0,0.0,0.0,0.0,0.0,0.0,0.0,0.0,0.0,0.0,0.0,0.0,0.0,0.0,0.5752029180512215,0.287706768970329,3.462380362447466,22.45545013216735,15.586082438194232,35.962082401954504,39.01522831922676,25.829370141051463,2.831784413474431,13.274107911849208,0.0,0.0,0.0,0.0,0.0,0.0,0.0,0.0,0.0,0.0,0.0,0.0,0.0,3.993353103717012,25.021853484951727,47.36672817516489,63.45071603198713,73.47264223104654,77.134269008901,72.95283234391714,66.65866756799524,54.88880690650188,37.676528301968034,15.928971618196938,0.0,0.0,0.0,0.0,0.0,0.0,0.0,0.0,0.0,0.0,0.0,0.0,0.0,4.225666841765528,24.535110920463858,45.110146679741675,59.800252108272815,68.71621326790091,72.27800621816242,70.77375896780657,64.56805454544802,53.31800377108408,36.49284452333462,15.364931554285851,0.0,0.0,0.0,0.0,0.0,0.0,0.0,0.0,0.0,0.0,0.0,0.0,0.0,2.809669325083594,22.212184159868137,34.8447438884936,48.13001465448295,58.38446521148031,58.41753253412186,58.439647622512695,35.03282744976044,24.546273774603996,33.650107875609486,14.745498459452955,0.0,0.0,0.0,0.0,0.0,0.0,0.0,0.0,0.0,0.0,0.0,0.0,0.0,1.603870458059338,13.661437888523023,30.26523563247467,36.64807138184936,44.65668205778478,43.58357372110555,53.782631247181115,39.97755059406236,20.18791640249344,6.316279864312736,6.261097453280359,0.0,0.0,0.0,0.0,0.0,0.0,0.0,0.0,0.0,0.0,0.0,0.0,0.0,3.429102419916491,16.813996393609326,22.654696547574325,37.53288553737231,52.1235783780894,51.40452207555301,47.30038290999237,40.9510357230381,39.60138347152868,22.986422873436897,5.331842501086295,0.0,0.0,0.0,0.0,0.0,0.0,0.0,0.0,0.0,0.0,0.0,0.0,0.0,1.8252319618571533,10.121549406762908,26.681116973932877,27.532863806814294,34.45762453170922,41.93547308626454,48.69405471839403,42.98625571466349,38.074810512892554,27.61037192612694,8.572861359735947,0.0,0.0,0.0,0.0,0.0,0.0,0.0,0.0,0.0,0.0,0.0,0.0,0.0,4.933560290161777,24.933393131388375,44.71186446881716,58.87120777596819,66.85770336351278,72.36646657172578,70.24278622653702,63.19628720554776,50.962009687846816,33.34028601824832,14.47990677887346,0.0,0.0,0.0,0.0,0.0,0.0,0.0,0.0,0.0,0.0,0.0,0.0,0.0,5.3981877662588085,26.714394916463853,48.18540768540476,63.68302977003564,73.16303099357481,76.81349491728912,75.30903704704384,61.758174600475,56.70308663410834,35.995149724596054,17.278623869706358,0.0,0.0,0.0,0.0,0.0,0.0,0.0,0.0,0.0,0.0,0.0,0.0,0.0,5.254334381773645,24.424535478509668,41.681044259825185,63.79360521198983,72.27800621816242,75.35326722382551,73.1963089361058,65.28690022809498,50.78487836083068,33.81607634848549,14.535299809795276,0.0,0.0,0.0,0.0,0.0,0.0,0.0,0.0,0.0,0.0,0.0,0.0,0.0,5.5860607076362125,2.500058087611863,48.838118722768634,21.39350464962826,26.194374409445008,36.128050874830514,77.27791177349671,68.95968986008955,56.891170195375175,38.207501043237585,17.212278604533843,0.0,0.0,0.0,0.0,0.0,0.0,0.0,0.0,0.0,0.0,0.0,0.0,0.0,6.183589333967709,27.51074871842345,47.80924056287108,61.99048833852352,70.61874272918128,74.02594068059636,72.8201418135721,66.1940400918982,55.16535082133207,38.307124250941065,17.278623869706358,0.0,0.0,0.0,0.0,0.0,0.0,0.0,0.0,0.0,0.0,0.0,0.0,0.0,6.55975645650139,29.08155185384125,50.27602070795197,65.77364279258285,75.04344536646434,78.60544893661529,76.80233206314898,70.05470266527018,56.2384591580113,39.36906973348016,18.03074749488428,0.918092098053927,0.0,0.0,0.0,0.0,0.0,0.0,0.0,0.0,0.0,0.0,0.0,0.0,6.637053955924603,28.373658405445003,49.302535578976226,63.78265297773913,72.11203774528641,72.56571298713276,71.07241797102762,64.56805454544802,52.85337629498705,36.89133735414857,16.614960598091784,0.6305959489730345,0.0,0.0,0.0,0.0,0.0,0.0,0.0,0.0,0.0,0.0,0.0,0.0,6.526478513970414,25.508596049439596,48.30714598149909,63.06359667520273,71.41530715103032,74.24709156450474,73.25149134713817,63.47283112037796,52.24510605429429,36.16111819747205,16.216678387167267,0.5642506838005208,0.0,0.0,0.0,0.0,0.0,0.0,0.0,0.0,0.0,0.0,0.0,0.0,6.847252605582281,28.019606371302157,48.05271715505973,62.75377481784157,71.33779903171765,75.120953485777,73.83785711932953,67.39983895892246,56.09460577352614,37.89788980576585,17.278623869706358,0.9956002173665778,0.0,0.0,0.0,0.0,0.0,0.0,0.0,0.0,0.0,0.0,0.0,0.0,6.227819510749384,24.08164629850696,48.04155430091959,55.89535935811916,70.5635603181489,73.26265420127831,71.51471973884436,65.01035631326478,53.19647609487919,27.245367657733397,16.625912832342486,0.8407945986307126,0.0,0.0,0.0,0.0,0.0,0.0,0.0,0.0,0.0,0.0,0.0,0.0,6.968990901676608,27.2563198919841,36.93535691104081,42.753941976614975,45.41996853710285,66.54809212604106,71.92416480390901,44.380138142954586,52.49953488073364,35.61919322195181,16.437829271075646,0.7521236251779245,0.0,0.0,0.0,0.0,0.0,0.0,0.0,0.0,0.0,0.0,0.0,0.0,5.940112741779055,21.31620715020504,41.10584134177396,61.138741505642095,70.09872222216242,55.88440712386846,61.105674183000566,52.80914611820537,47.997324124137926,34.8447438884936,16.670353629013597,0.940207186444765,0.0,0.0,0.0,0.0,0.0,0.0,0.0,0.0,0.0,0.0,0.0,0.0,5.1991519707412674,18.56172023615383,18.61711326707564,10.58617688285994,28.50634893579003,38.66117628508391,71.89088686137804,65.44191646672029,54.357834165232326,37.93095712840739,17.057262365908542,1.227913955415094,0.0,0.0,0.0,0.0,0.0,0.0,0.0,0.0,0.0,0.0,0.0,0.0,8.0418886184664,29.19212729579544,48.72733266092501,47.24520049896,71.11664814780929,73.72707105748589,72.60994316391444,66.4705840067284,55.35343438259891,38.849259846350755,17.75420358005409,1.4490648393234726,0.0,0.0,0.0,0.0,0.0,0.0,0.0,0.0,0.0,0.0,0.0,0.0,8.395940652609243,29.12578203062293,47.75384753194926,60.8621975908119,70.59662764079043,73.90420238450204,71.93511703815972,57.12327331353424,54.65649316845336,37.25634162254212,17.70997340327241,1.4381126050727722,0.0,0.0,0.0,0.0,0.0,0.0,0.0,0.0,0.0,0.0,0.0,0.0,8.285365210655055,28.58385705510268,41.791619701779375,45.264952298477546,58.04136541158818,64.70074507579305,57.84232961607064,56.249411392262,47.997324124137926,23.583951499768393,11.305233185396323,0.5642506838005208,0.0,0.0,0.0,0.0,0.0,0.0,0.0,0.0,0.0,0.0,0.0,0.0,1.150405836102443,4.80086975981675,7.588423996509507,14.30298607174676,7.665932115822156,5.088365908897641,17.45554457683306,24.181058886321015,1.836184196107854,13.683552976913862,6.49320057143944,0.0111628541401372,0.0,0.0,0.0,0.0,0.0,0.0,0.0,0.0,0.0,0.0,0.0,0.0,4.579508256018934,14.247593040824947,22.79854993205949,21.36043732698672,31.9687292982375,26.006290848178164,24.457813421040644,26.70323206232372,25.729746933347975,7.942476030652348,3.6725790121051447,0.0,0.0,0.0,0.0,0.0,0.0,0.0,0.0,0.0,0.0,0.0,0.0,0.0,1.3606044857601212,5.763192034652352,21.515242945722584,31.161212642137755,52.5989474685477,72.18954586459907,58.295794238027526,56.65885645732665,52.98627744522151,23.13027625792206,11.105986769989348,0.663663271614573,0.0,0.0,0.0,0.0,0.0,0.0,0.0,0.0,0.0,0.0,0.0,0.0,9.834053257682015,10.674637236423292,32.787198188587936,52.012792316245765,73.90420238450204,76.93523321338344,76.12750593739426,70.28701640331869,58.77158456826469,21.5706359766444,10.88483588608097,0.895977009663089,0.0,0.0,0.0,0.0,0.0,0.0,0.0,0.0,0.0,0.0,0.0,0.0,11.72563048471168,35.497454925857475,56.22729630387117,70.99490985171495,79.13642167788484,81.9130236803269,80.50797839789566,72.9861102864481,60.50835617655849,42.5437433269573,19.911372487663247,2.1681211418598587,0.0,0.0,0.0,0.0,0.0,0.0,0.0,0.0,0.0,0.0,0.0,0.0,11.581777100226516,34.225310793660704,53.46185715556924,66.59232230282272,73.87092444197106,75.89519219934576,75.33115213543466,67.90869661180116,56.01709765421349,39.50176026382519,19.192316185126863,2.06849793415637,0.0,0.0,0.0,0.0,0.0,0.0,0.0,0.0,0.0,0.0,0.0,0.0,11.437923715741352,33.262988518825104,51.75836348980642,67.18964030926479,75.08767554324602,41.50412355269848,76.91290750510318,69.7891109846907,58.306957092167664,40.08812603601655,19.645780807083757,2.4667801450808886,0.0,0.0,0.0,0.0,0.0,0.0,0.0,0.0,0.0,0.0,0.0,0.0,11.271955242865353,32.67662274663375,51.426426544054415,64.71169731004376,34.767446389070386,59.191981867580054,60.27604243850999,45.34246041779019,28.959813557746923,22.53295825148,11.117149624129484,1.0507826283989543,0.0,0.0,0.0,0.0,0.0,0.0,0.0,0.0,0.0,0.0,0.0,0.0,1.2500290438059316,2.7654391483019185,3.031030828881409,10.265402791248071,22.820665020450328,31.29390317248279,40.25409450889255,31.758530648579814,31.426804322717253,14.90030407818882,7.477848554555316,0.4755797103477327,0.0,0.0,0.0,0.0,0.0,0.0,0.0,0.0,0.0,0.0,0.0,0.0,0.48674256448787,2.090613022547208,7.831689968808721,12.15698001827774,12.588329551843795,13.451239238865346,9.247687485490657,10.442323498374776,8.993258659051302,4.911445201770939,2.2677443495633476,0.0,0.0,0.0,0.0,0.0,0.0,0.0,0.0,0.0,0.0,0.0,0.0,0.0,0.2101986496576781,0.1990357955175409,3.506610539229142,5.907045419137517,10.475390821016312,7.522078731336992,8.982306424800601,5.3981877662588085,11.017526416425998,9.12594918939633,4.413750403032368,0.1105754419541894,0.0,0.0,0.0,0.0,0.0,0.0,0.0,0.0,0.0,0.0,0.0,0.0,11.980059311151036,32.687785600773886,50.33120311898435,62.6985924068092,39.36906973348016,34.08145740917554,45.6743973635422,35.88457428264186,56.79133636778225,18.70557362063899,19.30289162708105,2.5885184411752147,0.0,0.0,0.0,0.0,0.0,0.0,0.0,0.0,0.0,0.0,0.0,0.0,3.329689832102438,16.349368917512294,32.86470630790059,37.676528301968034,32.886821396291424,35.87341142850172,42.167786824313055,36.19439614000303,48.53945971954761,27.78729263325365,14.247593040824947,1.9800375805930184,0.0,0.0,0.0,0.0,0.0,0.0,0.0,0.0,0.0,0.0,0.0,0.0,13.274107911849208,34.65666032722676,47.40000611769586,55.56363303225659,64.93305881384157,67.95292678858284,65.2426700513133,59.368902574706766,48.46195160023496,28.539626878321,14.535299809795276,2.123890965078183,0.0,0.0,0.0,0.0,0.0,0.0,0.0,0.0,0.0,0.0,0.0,0.0,12.842758378283149,29.767330213846662,37.58827856829412,42.289525120407376,44.35802305456375,49.335813521507205,59.612168547005965,50.64102497634551,29.247520326717257,16.150333121994752,8.019773530075563,0.8517468328814133,0.0,0.0,0.0,0.0,0.0,0.0,0.0,0.0,0.0,0.0,0.0,0.0,6.338394952703574,15.420113965318228,24.402420390118827,65.51921396614348,72.41069674850745,75.59653319612471,73.52803526196836,67.48829931248581,56.17211389283879,38.705406461865586,9.258850339630794,2.7212089715202423,0.0,0.0,0.0,0.0,0.0,0.0,0.0,0.0,0.0,0.0,0.0,0.0,13.32950094277102,33.28510360721594,30.85139078477659,43.041648745585306,55.23190670639403,72.30012130655327,69.98835740009768,63.81572030038066,53.307051536833384,37.90884204001655,11.039641504816837,1.5817553696684998,0.0,0.0,0.0,0.0,0.0,0.0,0.0,0.0,0.0,0.0,0.0,0.0,2.2677443495633476,11.515431835054004,20.11040828318079,21.913525156647104,32.27855115559866,46.57037437320528,51.03930718727003,49.54601217116489,56.17211389283879,26.426688147493525,8.594976448126785,1.128290747711605,0.0,0.0,0.0,0.0,0.0,0.0,0.0,0.0,0.0,0.0,0.0,0.0,14.922419166579656,37.37786929874701,56.30480442318381,69.46833689307883,77.07887597797917,80.02144645329723,77.91967057660989,70.99490985171495,59.35773972056663,42.289525120407376,21.05061546962555,3.1416062708355987,0.0,0.0,0.0,0.0,0.0,0.0,0.0,0.0,0.0,0.0,0.0,0.1548056187358651,15.243193258191528,36.34920175873889,54.61247361156112,65.54132905453433,73.15186813943467,75.98386317279854,76.73598679797648,67.432906281564,56.160951038698656,40.04389585923487,20.398115052151116,3.2521817127897883,0.0,0.0,0.0,0.0,0.0,0.0,0.0,0.0,0.0,0.0,0.0,0.5642506838005208,15.962249560727912,37.45537741805966,55.38671232512989,67.89753375766102,74.74478636324332,76.83561000567995,74.99921518968267,68.76044344468258,57.86444470446147,41.4708456101675,21.305254915954343,3.462380362447466,0.0,0.0,0.0,0.0,0.0,0.0,0.0,0.0,0.0,0.0,0.0,0.4092344451752191,13.772013330477217,26.581704386118822,40.12140397854752,45.110146679741675,56.11672086191697,48.1965705395449,63.26263247072028,34.3358862356149,35.895737136781996,39.20310126060416,19.214431273517697,3.1304434166954613,0.0,0.0,0.0,0.0,0.0,0.0,0.0,0.0,0.0,0.0,0.0,0.0,12.743345790469096,19.667895895474594,18.29633917546377,20.220983725134975,32.112372062833224,41.88008005534273,24.955508219779215,23.39586793850155,24.03741612172529,14.922419166579656,4.524325844986558,1.8473470502479912,0.0,0.0,0.0,0.0,0.0,0.0,0.0,0.0,0.0,0.0,0.0,0.0,5.110480997288479,15.276471200722504,14.47990677887346,69.07005468215432,78.56121875983362,82.00148403389025,77.83121022304654,71.47048956206268,59.921990404367136,42.84261295006776,21.183516619860015,3.4733325966981665,0.0,0.0,0.0,0.0,0.0,0.0,0.0,0.0,0.0,0.0,0.0,1.2500290438059316,17.621513049709062,40.60793592314595,60.71834420632674,74.35766700645893,82.39955562492533,84.91077656667733,82.18956759515707,74.49035753680396,60.430848057245846,31.957566444097356,17.477659665223896,3.738924277277658,0.0,0.0,0.0,0.0,0.0,0.0,0.0,0.0,0.0,0.0,0.0,1.3052114548383082,17.676906080630875,39.91120532888984,58.63889403791968,71.31568394332682,78.76025455535117,81.14973720100885,78.68295705592794,71.65857312332952,59.74506969724044,41.61469899465267,21.614866153426075,3.838547484981147,0.0,0.0,0.0,0.0,0.0,0.0,0.0,0.0,0.0,0.0,0.0,1.5375251928868243,18.174600879369446,40.11024112440739,57.58790078963128,69.5016148356098,76.21596629095762,78.25139690247245,75.7957796115317,69.20295583238878,58.24061182699515,41.84701273270119,21.64793347606761,3.738924277277658,0.0,0.0,0.0,0.0,0.0,0.0,0.0,0.0,0.0,0.0,0.0,1.64831125473045,17.84266393361744,39.51292311796533,57.455210259286254,69.57891233503302,66.95732657121626,79.47931085788755,77.30023748177699,70.76259611366643,59.368902574706766,41.45968275602737,21.50429071147188,3.783154454059334,0.0,0.0,0.0,0.0,0.0,0.0,0.0,0.0,0.0,0.0,0.0,1.7477238425445023,17.278623869706358,38.096925601283395,39.037132787728154,35.03282744976044,39.413299910261834,17.721136257412553,55.2870891174264,68.98159432859096,56.90212242962588,40.37562218509744,20.276376756056788,3.849499719231848,0.0,0.0,0.0,0.0,0.0,0.0,0.0,0.0,0.0,0.0,0.0,1.692541431512126,16.769766216827648,24.18126950621045,43.20761721846131,66.8134731867311,57.455210259286254,76.84656223993065,74.45707959427298,68.42850649893057,57.75386926250729,41.78066746752867,21.31620715020504,3.90489275015366,0.0,0.0,0.0,0.0,0.0,0.0,0.0,0.0,0.0,0.0,0.0,1.969085346342318,17.068425220048677,36.714206027132434,43.72742710559071,53.18531324073905,23.351637761719875,50.264857853811826,63.58340656233216,53.2628213600517,30.99524416926176,20.11040828318079,9.402493104226522,3.5950708927924935,0.0,0.0,0.0,0.0,0.0,0.0,0.0,0.0,0.0,0.0,0.0,1.64831125473045,2.8981296786469453,11.648122365399033,15.154732904628174,18.73885156316997,35.652471164482776,52.84242406073635,31.3602484376553,29.51290138740731,17.820548845226604,14.90030407818882,8.982306424800601,3.90489275015366,0.0,0.0,0.0,0.0,0.0,0.0,0.0,0.0,0.0,0.0,0.0,1.0619454825390915,6.095128980404357,39.13675599543165,41.625651228903365,49.534849317024744,52.56588014590616,49.57907949380642,55.795736150415664,49.83350832024578,46.647882492517944,32.300666243989504,20.818301731577037,4.236619076016228,0.0,0.0,0.0,0.0,0.0,0.0,0.0,0.0,0.0,0.0,0.0,0.1105754419541894,1.0286675400081164,4.181436664983853,6.4489703946577634,6.6812841327062795,10.66368500217259,13.163532469895015,30.696585166040727,27.04612124232642,20.497527639965167,13.263155677598506,3.794106688310034,0.0,0.0,0.0,0.0,0.0,0.0,0.0,0.0,0.0,0.0,0.0,0.0,2.6769787947385666,19.568483307660543,40.93987286889796,57.02365010583077,68.26253802605457,74.97710010129182,77.09003883211932,74.85557242508693,68.86006665238608,57.8202145276798,42.03509629396803,22.278529425040645,4.31412719532888,0.0,0.0,0.0,0.0,0.0,0.0,0.0,0.0,0.0,0.0,0.0,2.9092925327870827,19.57943554191124,39.701006679232165,55.862292035477616,67.13424727834295,61.182971682423776,76.50367305992795,73.59438052714087,67.52157725501678,56.42654271927814,12.676789905407148,21.946592479288643,4.491047902455582,0.0,0.0,0.0,0.0,0.0,0.0,0.0,0.0,0.0,0.0,0.0,2.986800652099733,20.232146579275113,42.18990191270389,60.11007396563399,72.51031995621095,79.66739441915439,81.70282503066922,69.98835740009768,55.408827413520726,61.1277892713914,43.72742710559071,18.92672450454737,4.50221075659572,0.0,0.0,0.0,0.0,0.0,0.0,0.0,0.0,0.0,0.0,0.0,3.1416062708355987,20.398115052151116,42.13450888178208,59.89987531597631,72.25589112977158,79.53470388880936,81.66954708813824,79.5568189772002,72.66533619483624,60.928542855984425,44.02608610881175,14.026442156916568,4.590671110159072,0.0,0.0,0.0,0.0,0.0,0.0,0.0,0.0,0.0,0.0,0.0,3.274296801180626,20.475412551574333,40.65216609992763,58.80465189090624,70.88433440976077,77.86427754568807,79.87759306881208,77.6431266617797,70.66297290596295,39.93332041728068,41.736226670857555,22.068330775382968,4.911445201770939,0.0,0.0,0.0,0.0,0.0,0.0,0.0,0.0,0.0,0.0,0.0,3.451217508307329,20.608313701808797,40.78506725016209,57.01269787158006,68.16312543824051,74.51268324508423,76.3046372644104,66.50386194925937,68.3733240878982,57.23405937537787,41.86912782109202,22.776434843668653,5.022020643725129,0.0,0.0,0.0,0.0,0.0,0.0,0.0,0.0,0.0,0.0,0.0,3.52872562761998,21.06177832376569,41.23853187211899,58.86004492182805,70.50816728722708,77.06771312383903,79.40180273857489,77.26695953924602,53.871091600744464,59.756021931491134,43.22973230685215,22.743156901137677,4.922608055911076,0.0,0.0,0.0,0.0,0.0,0.0,0.0,0.0,0.0,0.0,0.0,1.858299284498692,7.776507557776346,25.11031383851508,42.94202553788182,54.0591751620113,57.69868685147491,60.71834420632674,72.42185960264759,65.95077411959899,55.253811174895425,40.14351906693836,21.448897680550072,4.80086975981675,0.0,0.0,0.0,0.0,0.0,0.0,0.0,0.0,0.0,0.0,0.0,3.5950708927924935,13.98221198013489,30.30946580925635,41.44873052177667,39.324839556698485,68.0523393763969,34.855906742633735,66.0171193847715,42.665481623051626,39.20310126060416,22.887010285622843,11.92466628022922,3.838547484981147,0.0,0.0,0.0,0.0,0.0,0.0,0.0,0.0,0.0,0.0,0.0,1.0728977167897924,6.9026456365040945,32.886821396291424,24.31396003655548,47.38884326355573,55.099005556159554,56.18306612708948,27.01305391968488,26.504196266806172,26.54842644358785,19.181153330986724,10.918113828611943,3.2521817127897883,0.0,0.0,0.0,0.0,0.0,0.0,0.0,0.0,0.0,0.0,0.0,3.82738463084101,10.110597172512206,29.17022282729404,40.48640824694107,26.802855270027205,60.99488812115693,64.64535204487125,50.01063964726192,43.926673520997696,28.83828588154203,20.19886863674414,10.353863144811424,3.429102419916491,0.0,0.0,0.0,0.0,0.0,0.0,0.0,0.0,0.0,0.0,0.0,0.1105754419541894,10.29847011388961,2.4446650566900505,3.761039365668496,14.446839456231924,29.159059973153894,37.62134589093566,29.745215125455825,26.758625093245527,30.442156339601375,24.69012715908916,14.004327068525727,4.02642042635855,0.0,0.0,0.0,0.0,0.0,0.0,0.0,0.0,0.0,0.0,0.0,0.0,12.378130902186118,13.086234970471802,12.54409937506212,49.335813521507205,41.625651228903365,24.435698332649803,31.150049787997624,20.342722021229303,17.798433756835763,16.65919077487346,4.236619076016228,2.322926760595724,0.0,0.0,0.0,0.0,0.0,0.0,0.0,0.0,0.0,0.0,0.0,1.0952234250700663,3.3627571547439774,8.318432533296592,31.271788084091945,70.80682629044811,76.65847867866381,78.84871490891452,67.72061305053431,70.96163190918398,59.921990404367136,42.698759565582606,23.340474907579736,5.29856455855532,0.0,0.0,0.0,0.0,0.0,0.0,0.0,0.0,0.0,0.0,0.0,4.292012106938042,22.33392245596246,42.18990191270389,57.51060329020807,68.16312543824051,74.21381362197377,75.77366452314085,73.273606435529,66.9794416596071,56.33787174582535,41.282762048900665,22.522006017229295,5.022020643725129,0.0,0.0,0.0,0.0,0.0,0.0,0.0,0.0,0.0,0.0,0.0,4.269897018547204,22.079493629523107,41.61469899465267,56.54828101537247,66.6365524796044,72.42185960264759,73.98149988392525,72.0347402458632,66.28250044546157,56.1278837160571,41.38238525660415,22.78738707791935,5.1991519707412674,0.0,0.0,0.0,0.0,0.0,0.0,0.0,0.0,0.0,0.0,0.0,4.5685560217682335,22.278529425040645,42.03509629396803,57.33347196319193,67.9417639344427,73.87092444197106,75.45289043152901,76.47060573728642,67.30021575121897,57.20078143284691,42.289525120407376,23.307196965048764,5.3981877662588085,0.0,0.0,0.0,0.0,0.0,0.0,0.0,0.0,0.0,0.0,0.0,4.657016375331585,22.156791128946317,41.48179784441821,56.33787174582535,66.96827880546697,72.68745128322708,74.18074629933223,67.04578692477962,66.0280716190222,55.77383168191427,40.84024966119448,22.57718842826168,5.519926062353135,0.0,0.0,0.0,0.0,0.0,0.0,0.0,0.0,0.0,0.0,0.0,4.701246552113261,22.03526345274143,40.02178077084404,57.76482149675799,68.43966935307071,66.43730606419741,76.76926474050745,74.26920665289558,67.79812116984698,57.42193231675528,40.99526589981977,22.687763870215864,5.552993384994674,0.0,0.0,0.0,0.0,0.0,0.0,0.0,0.0,0.0,0.0,0.0,4.292012106938042,18.583835324544665,35.066105392291426,50.11005223507597,35.995149724596054,38.67212851933461,66.5921116829333,65.58576985120544,60.18737146505719,44.4464834081271,40.39794789337772,19.867142310881572,5.674731681089001,0.0,0.0,0.0,0.0,0.0,0.0,0.0,0.0,0.0,0.0,0.0,5.210104204991969,19.712126072256268,32.588373012959835,44.634566969393944,46.00612368940476,55.87345488961776,62.30031019588469,59.12563660240753,47.14557729125651,27.32266515715661,19.800797045709057,14.181247775652434,4.0929763114205,0.0,0.0,0.0,0.0,0.0,0.0,0.0,0.0,0.0,0.0,0.0,1.227913955415094,14.181247775652434,26.293997617148495,35.22091101102728,50.043706969903454,52.94204726843984,59.32467239792508,70.08776998791173,63.46166826623782,53.56148036327273,39.15887108382248,21.460060534690207,5.929160507528355,0.0,0.0,0.0,0.0,0.0,0.0,0.0,0.0,0.0,0.0,0.0,3.937960072795198,12.378130902186118,25.729746933347975,36.94651976518095,34.29165605883322,35.519570014248316,53.06357494464473,50.67430291887649,57.34463481733207,46.27171536998426,39.73407400187371,22.101608717913944,6.139359157186033,0.0,0.0,0.0,0.0,0.0,0.0,0.0,0.0,0.0,0.0,0.0,5.331842501086295,22.01314836435059,41.21641678372816,56.68097154571749,52.908769325908864,71.14971547045081,72.53243504460178,70.23162337239688,64.07014912682003,28.11922957900565,40.26504674314325,22.23429924825897,6.073013892013519,0.0,0.0,0.0,0.0,0.0,0.0,0.0,0.0,0.0,0.0,0.0,5.177036882350429,21.813901948943613,40.641003245787495,33.406841903310266,57.13443616767438,73.29572152391984,75.10979063163686,70.18739319561521,54.86669181811104,43.11915686489795,32.49970203950705,17.599397961318225,4.61278619854991,0.0,0.0,0.0,0.0,0.0,0.0,0.0,0.0,0.0,0.0,0.0,3.174673593477137,0.8407945986307126,11.880436103447549,23.39586793850155,52.908769325908864,36.03937990137772,31.393526380186277,48.39560633506244,48.959646398973526,25.497643815188898,17.26746101556622,12.311785637013603,6.415903072016224,0.0,0.0,0.0,0.0,0.0,0.0,0.0,0.0,0.0,0.0,0.0,5.763192034652352,24.668012070698317,45.79592503974709,61.94646878163128,72.9970625206988,79.19181470880666,80.5191412520358,77.55466630821634,70.89528664401146,59.833530050803795,44.2695627010004,24.214336828851987,6.49320057143944,0.0,0.0,0.0,0.0,0.0,0.0,0.0,0.0,0.0,0.0,0.0,5.774354888792489,23.72759426436412,42.643366534660785,57.621178732162264,67.68733510800335,73.32899946645082,74.82229448255596,73.03034046322978,66.52597703765021,56.63653074904638,41.85796496695189,23.672411853331745,6.4710854830486015,0.0,0.0,0.0,0.0,0.0,0.0,0.0,0.0,0.0,0.0,0.0,3.274296801180626,23.362589995970577,42.13450888178208,57.01269787158006,67.44406913570413,73.21821340460718,74.71171904060178,52.58799523429699,66.9794416596071,56.359986834216194,41.681044259825185,23.42893526114309,6.382625129485249,0.0,0.0,0.0,0.0,0.0,0.0,0.0,0.0,0.0,0.0,0.0,5.763192034652352,22.61046637079265,40.84024966119448,55.253811174895425,65.25383290545344,70.81798914458824,72.31128416069339,62.55473902232403,65.27594799384427,13.44007638472521,21.150238677329043,23.24085169987625,6.825137517191444,0.0,0.0,0.0,0.0,0.0,0.0,0.0,0.0,0.0,0.0,0.0,6.028783715231842,18.48442273673061,40.38678503923758,54.62342584581182,64.39113383832132,69.96603169181739,62.0237662810545,47.22308541056916,18.274224087072938,49.203122991162175,31.924499121455824,22.920077608264386,6.95782804753647,0.0,0.0,0.0,0.0,0.0,0.0,0.0,0.0,0.0,0.0,0.0,5.97339068431003,22.212184159868137,40.25388388900311,54.61226299167169,64.64535204487125,70.33124658010038,39.20310126060416,71.02797717435648,64.15860948038338,54.41322719615415,40.26504674314325,19.60155063030208,6.792070194549905,0.0,0.0,0.0,0.0,0.0,0.0,0.0,0.0,0.0,0.0,0.0,5.89588256499738,22.654696547574325,41.74738952499769,56.80270984181182,67.21175539765562,73.16303099357481,74.82229448255596,72.9861102864481,66.84675112926207,56.47077289605982,40.63005101153679,23.340474907579736,6.847252605582281,0.0,0.0,0.0,0.0,0.0,0.0,0.0,0.0,0.0,0.0,0.0,5.962227830169892,22.400267721134973,40.28716183153409,56.22729630387117,67.11234280984156,72.9970625206988,74.58998074450744,72.45513754517856,66.27154821121086,54.269373811668984,40.11024112440739,23.13027625792206,6.9026456365040945,0.0,0.0,0.0,0.0,0.0,0.0,0.0,0.0,0.0,0.0,0.0,3.71680918888682,21.65909633020775,36.71441664702187,49.236400933693155,64.1697723345235,64.68979284154236,59.20293410183076,65.30922593637526,55.33131929420807,49.39120655242902,35.9066893710327,22.76527198952852,6.991105990067445,0.0,0.0,0.0,0.0,0.0,0.0,0.0,0.0,0.0,0.0,0.0,6.106081214655058,18.937887358687508,39.64561364831036,53.48397224396008,63.0305293525612,68.32888329122709,70.16527810722438,68.35120899950736,37.72096909863915,43.926673520997696,39.214264114744296,19.048462800641698,7.289764993288475,0.0,0.0,0.0,0.0,0.0,0.0,0.0,0.0,0.0,0.0,0.0,6.27204968753106,21.76967177216194,38.959835288304944,52.84242406073635,62.643199375887384,68.22947070341304,70.1210479304427,68.08561731892786,62.14550457714881,45.862480924809034,36.32708667034805,17.400362165800683,6.592823779142927,0.0,0.0,0.0,0.0,0.0,0.0,0.0,0.0,0.0,0.0,0.0,5.3870249121186715,22.201021305727995,34.8337916542429,45.43092077135354,57.0348129599709,49.1588928143805,51.23855360267701,54.56803281489002,48.572527042189144,48.10789956609211,35.4532247490758,13.838358595649728,6.780907340409768,0.0,0.0,0.0,0.0,0.0,0.0,0.0,0.0,0.0,0.0,0.0,5.154921793959592,21.21658394250155,34.36916417814587,46.846918288035475,57.14538840192508,61.86896066231862,66.65866756799524,62.244917164962864,56.968467694798385,55.04382314512718,41.15007151855564,23.97107085655277,6.803022428800605,0.0,0.0,0.0,0.0,0.0,0.0,0.0,0.0,0.0,0.0,0.0,5.663568826948863,17.367084223269707,34.41339435492754,46.62555678423766,54.29148890005981,59.24716427861243,63.71630771256661,59.689676666318626,58.86004492182805,48.351376158280765,31.891221178924845,21.294092061814208,6.924760724894932,0.0,0.0,0.0,0.0,0.0,0.0,0.0,0.0,0.0,0.0,0.0,5.674731681089001,21.39350464962826,30.85139078477659,45.60805209836969,51.5370019860086,44.36897528881445,23.572788645628258,42.85356518431847,53.771468393040976,43.24068454110285,33.81607634848549,21.161401531469178,7.024173312708985,0.0,0.0,0.0,0.0,0.0,0.0,0.0,0.0,0.0,0.0,0.0,5.862815242355841,20.851579674108013,36.84689655747746,46.26055251584412,56.846729398704056,59.29160507528355,64.26918492233756,57.89772264699245,51.30489886784952,41.03949607660145,32.36701150916202,20.63042879019963,2.7987170908328936,0.0,0.0,0.0,0.0,0.0,0.0,0.0,0.0,0.0,0.0,0.0,5.353957589477133,22.34487469021316,39.85581229796803,53.72744883614874,63.295910413251256,68.7271655021516,70.2979686375694,68.47273667571226,62.82012008301408,53.61666277430511,40.25388388900311,23.606066588159223,7.577261142369367,0.0,0.0,0.0,0.0,0.0,0.0,0.0,0.0,0.0,0.0,0.0,5.497810973962298,22.212184159868137,39.28060937991681,53.1078051214264,62.70954464105989,68.03022428800605,33.163365311121616,37.8094294522025,46.93537864159883,53.019344767863046,39.324839556698485,23.16355420045303,7.035336166849121,0.0,0.0,0.0,0.0,0.0,0.0,0.0,0.0,0.0,0.0,0.0,6.438018160407062,12.145817164137602,38.417699692895255,51.9795143737148,61.559138804957456,52.00162946210563,48.52829686540746,30.353695986038023,7.333995170070151,24.67896430494902,27.156907304170044,19.170201096736022,7.179189551334287,0.0,0.0,0.0,0.0,0.0,0.0,0.0,0.0,0.0,0.0,0.0,5.917997653388218,22.78738707791935,41.08372625338313,55.56363303225659,65.66306735062867,71.43742223942115,73.15186813943467,61.2937577442674,66.14980991511653,56.006145419962785,42.14567173592222,24.844932777825026,7.665932115822156,0.0,0.0,0.0,0.0,0.0,0.0,0.0,0.0,0.0,0.0,0.0,6.19454156821841,22.001985510210453,38.99290261094647,52.55471729176602,62.090111546227,67.4992515467365,69.37987653951548,67.85330358087936,62.422048491979005,53.284936448442544,29.258472560967952,19.95560266444492,7.942476030652348,0.0,0.0,0.0,0.0,0.0,0.0,0.0,0.0,0.0,0.0,0.0,6.0508988036226805,22.28969227918078,25.25416722300024,53.39551189039673,34.71205335814858,68.9927571827311,69.71181348526747,53.19647609487919,62.84244579129437,53.47302000970937,40.563705746364285,24.125876475288635,7.831689968808721,0.0,0.0,0.0,0.0,0.0,0.0,0.0,0.0,0.0,0.0,0.0,6.0508988036226805,22.057378541132262,39.23637920313513,53.1078051214264,62.079159311976305,50.906616656925,70.17623034147509,67.63215269697098,62.27819510749384,53.20742832912989,39.98850282831305,23.91567782563096,8.053051472606537,0.0,0.0,0.0,0.0,0.0,0.0,0.0,0.0,0.0,0.0,0.0,6.249934599140222,15.785328853601207,38.838096992210616,52.18971302337247,61.49279353978495,66.96827880546697,68.60563782594672,66.53692927190092,61.20508677081462,38.51732290059875,27.300550068765777,22.743156901137677,7.389388200991966,0.0,0.0,0.0,0.0,0.0,0.0,0.0,0.0,0.0,0.0,0.0,6.249934599140222,21.725441595380264,38.40674745864456,52.11241552394927,61.725107277833466,36.68113870449089,48.98176148736436,10.75214535573594,59.191981867580054,52.95299950269054,41.24969472625912,24.557226008854695,7.610539084900344,0.0,0.0,0.0,0.0,0.0,0.0,0.0,0.0,0.0,0.0,0.0,6.117244068795195,21.813901948943613,39.12580376118094,52.86453914912719,62.632036521747246,47.17885523378749,70.81798914458824,56.17211389283879,26.681116973932877,2.842947267614569,4.347405137859854,4.01546819210785,2.3562047031266986,0.0,0.0,0.0,0.0,0.0,0.0,0.0,0.0,0.0,0.0,0.0,6.117244068795195,21.83601703733445,38.63906119669308,52.48837202659351,62.244917164962864,58.41753253412186,30.36485884017816,45.43092077135354,63.2074500596879,53.31821439097352,40.3425548624559,20.818301731577037,8.473448771921895,0.0,0.0,0.0,0.0,0.0,0.0,0.0,0.0,0.0,0.0,0.0,3.484495450838304,21.36043732698672,37.964235070938365,41.93547308626454,61.64780977841024,43.3291448946662,27.278434980374932,41.19409107544788,52.61011032268783,34.8337916542429,9.535394254460986,0.6084808605821965,7.84285282294886,0.0,0.0,0.0,0.0,0.0,0.0,0.0,0.0,0.0,0.0,0.0,6.117244068795195,21.5815882108951,38.73847378450713,52.82030897234551,61.680666481162355,48.43983651184411,34.557247739412716,51.05047004141017,53.34011885947491,53.362233947865754,39.13675599543165,10.375978233202265,4.712409406253397,0.0,0.0,0.0,0.0,0.0,0.0,0.0,0.0,0.0,0.0,0.0,6.106081214655058,21.64793347606761,38.583668165771265,52.433189615561126,62.17857189979034,45.38669059457187,15.785328853601207,60.50835617655849,54.82246164132936,40.05484809348557,4.745476728894936,8.318432533296592,6.017620861091706,0.0,0.0,0.0,0.0,0.0,0.0,0.0,0.0,0.0,0.0,0.0,3.771991599919197,13.650275034382888,11.393693538959676,12.400245990576956,20.63042879019963,29.358095768671447,56.79154698767168,49.822556085995075,15.08838763945566,2.876014590256107,12.853921232423287,9.325195604803309,5.619338650167188,0.0,0.0,0.0,0.0,0.0,0.0,0.0,0.0,0.0,0.0,0.0,5.951275595919192,21.614866153426075,38.66117628508391,52.77607879556383,61.48184130553424,55.154398587081374,69.31353127434296,67.20059254351548,61.725107277833466,52.82030897234551,40.98410304567963,24.723194481730697,8.108233883638913,0.0775081193126508,0.0,0.0,0.0,0.0,0.0,0.0,0.0,0.0,0.0,0.0,5.232219293382807,21.614866153426075,39.324839556698485,53.72744883614874,64.14744662624324,51.11681530658269,63.99264100750736,49.048106752536874,57.68752399733477,51.61451010532125,41.55930596373085,24.47992850943148,8.971143570660464,0.0775081193126508,0.0,0.0,0.0,0.0,0.0,0.0,0.0,0.0,0.0,0.0,4.867215024989264,21.47101276894091,38.29617201669037,48.28482027321881,61.52607148231592,59.3910176630976,56.90212242962588,63.63879959325395,43.771657282372395,45.70746468618374,40.97315081142894,24.92223027724824,8.097281649388213,0.0884603535633515,0.0,0.0,0.0,0.0,0.0,0.0,0.0,0.0,0.0,0.0,5.807422211434028,22.25641433664981,39.88909024049901,53.672055805226925,57.34463481733207,60.39757011471489,74.07017085737805,71.59222785815702,66.06134956155317,56.79154698767168,41.97970326304621,25.54187399197057,7.953428264903049,0.1659684728760024,0.0,0.0,0.0,0.0,0.0,0.0,0.0,0.0,0.0,0.0,5.088365908897641,17.975565083851905,32.41124168594369,47.04595408355301,55.36459723673905,60.26487958436985,63.660914681644805,67.85330358087936,62.18973475393049,53.406674744536865,40.685444042458606,24.75647242426167,8.207857091342403,0.0663452651725136,0.0,0.0,0.0,0.0,0.0,0.0,0.0,0.0,0.0,0.0,5.3981877662588085,19.944439810304782,32.17871732800574,31.05063720018357,26.36034288232101,43.03048589144517,58.7825368025154,43.03048589144517,54.53496549224847,44.10359422812439,34.391279266536706,8.606139302266921,7.046288401099822,0.0,0.0,0.0,0.0,0.0,0.0,0.0,0.0,0.0,0.0,0.0,5.232219293382807,16.515337390388293,39.00406546508662,19.11480806581421,7.079566343630797,5.187989116601131,21.21658394250155,39.88909024049901,67.65426778536181,48.90425336805171,31.55949485306228,22.48872807469833,9.09288186675479,0.176920707126703,0.0,0.0,0.0,0.0,0.0,0.0,0.0,0.0,0.0,0.0,0.0,4.9777904669434525,19.933487576054084,30.5748468699464,55.16535082133207,64.09226421521086,73.42841205426487,61.12757865150195,53.92648463166627,29.601572360860096,36.78055129230494,19.070577889032535,8.174789768700865,0.0884603535633515,0.0,0.0,0.0,0.0,0.0,0.0,0.0,0.0,0.0,0.0,4.922608055911076,21.305044296064903,32.35584865502188,52.16759793498163,61.57009103920815,67.23387048604646,61.382218097830744,58.2736791496367,62.77610052612184,53.18531324073905,40.58582083475512,24.911278042997537,8.440170829390919,0.1659684728760024,0.0,0.0,0.0,0.0,0.0,0.0,0.0,0.0,0.0,0.0,5.718961857870676,21.09484564640723,38.17443372059604,52.023744550496474,62.00144057277421,68.17407767249122,70.01047248848852,41.22757963786829,64.10321644946157,54.247258723278144,39.34695464508932,25.37590551909457,8.451333683531056,0.2653810606900546,0.0,0.0,0.0,0.0,0.0,0.0,0.0,0.0,0.0,0.0,5.331842501086295,20.995433058593175,38.439814781286096,45.25400006422684,34.60147791619439,13.81624350725889,43.59052417745696,43.527338210626,36.90881880497181,35.6716375744215,13.772013330477217,19.800797045709057,8.528631182954271,0.2653810606900546,0.0,0.0,0.0,0.0,0.0,0.0,0.0,0.0,0.0,0.0,5.542041150743973,20.707726289622848,37.93116774829682,41.22273538041125,38.77512164526909,35.17246843645688,36.201978456022744,11.128312478269622,8.13034897202975,25.055131427482703,32.28950338984936,17.77631866844493,5.995505772700868,0.0,0.0,0.0,0.0,0.0,0.0,0.0,0.0,0.0,0.0,0.0,4.756639583035073,20.741004232153823,38.08597336703269,41.900299564728634,39.45963628593788,14.723383371062116,13.185647558285854,12.599492405983932,23.42893526114309,30.442156339601375,32.4885391853669,24.734357335870836,8.517678948703571,0.0,0.0,0.0,0.0,0.0,0.0,0.0,0.0,0.0,0.0,0.0,3.384872243134816,19.004232623860023,36.40438416977126,52.1564350808415,44.04820119720259,19.11480806581421,51.315851102100225,53.06357494464473,41.97970326304621,43.08587892236698,20.84041681996787,25.099361604264377,4.789706905676612,0.0,0.0,0.0,0.0,0.0,0.0,0.0,0.0,0.0,0.0,0.0,5.940112741779055,11.92466628022922,30.608124812477374,40.67428118831847,2.3119745263450233,5.331842501086295,7.610539084900344,16.37148400590313,34.756283534930255,52.18971302337247,33.506254491124324,1.150405836102443,8.617091536517622,0.0,0.0,0.0,0.0,0.0,0.0,0.0,0.0,0.0,0.0,0.0,5.177036882350429,20.497527639965167,37.37786929874701,51.41547430980371,60.88452329909218,69.23602315503032,71.23838644390362,66.60327453707342,61.44856336300326,45.49726603652605,40.0106179167039,24.49088074368218,9.49116407767931,0.0,0.0,0.0,0.0,0.0,0.0,0.0,0.0,0.0,0.0,0.0,5.453580797180622,19.723288926396407,35.82939187160948,50.74064818404901,61.47046783150467,53.2628213600517,58.14098861929167,68.58352273755588,62.70954464105989,53.12992020981724,39.059458496008425,23.993185944943612,8.219019945482541,0.0,0.0,0.0,0.0,0.0,0.0,0.0,0.0,0.0,0.0,0.0,5.37607267786797,19.88925739927241,36.17228105161219,49.86678626277675,53.417626978787574,61.31587283265824,59.10352151401671,58.35118726894935,52.41107452717029,45.641119421011226,35.19879592263645,23.871447648849283,8.971143570660464,0.0,0.0,0.0,0.0,0.0,0.0,0.0,0.0,0.0,0.0,0.0,5.154921793959592,19.50192742259859,35.398042338043425,48.76061060345598,59.14775169079838,49.54601217116489,41.33815507982248,66.4263538299467,10.121549406762908,15.995527503258884,17.975565083851905,24.867047866215863,8.351710475827566,0.0,0.0,0.0,0.0,0.0,0.0,0.0,0.0,0.0,0.0,0.0,5.187989116601131,19.60155063030208,35.718605809765855,49.1588928143805,59.00389830631322,64.88882863705989,43.98185593203007,41.282762048900665,61.725107277833466,52.33356640785764,39.98850282831305,24.8891629546067,9.480001223539173,0.0663452651725136,0.0,0.0,0.0,0.0,0.0,0.0,0.0,0.0,0.0,0.0,4.889330113380101,19.911372487663247,36.74748396966341,50.806993449221515,60.829130268170374,66.60327453707342,62.00165119266365,58.62773118377954,35.962082401954504,46.65883472676864,37.15671841483862,23.440098115283224,9.28096542802163,0.0663452651725136,0.0,0.0,0.0,0.0,0.0,0.0,0.0,0.0,0.0,0.0,4.701246552113261,18.871542093514993,29.7784930679868,45.110146679741675,55.74055373938329,53.672055805226925,55.34248214834821,40.309276919924926,49.070432460817145,41.33815507982248,36.10593578643967,23.40682017275225,3.23006662439895,0.0,0.0,0.0,0.0,0.0,0.0,0.0,0.0,0.0,0.0,0.0,1.1946360128841187,6.338394952703574,17.77631866844493,20.58598799352852,42.079326470749706,58.694076448952046,54.76727923029699,54.46840960718652,49.52389708277404,38.01962810186018,26.426688147493525,20.154638459962463,7.754392469385508,0.0,0.0,0.0,0.0,0.0,0.0,0.0,0.0,0.0,0.0,0.0,4.845099936598426,12.378130902186118,19.170201096736022,33.18548039951246,50.39775900404629,50.79604121497081,47.4330734403374,59.16986677918922,58.43985824240214,43.74954219398155,34.767446389070386,17.975565083851905,6.382625129485249,0.0,0.0,0.0,0.0,0.0,0.0,0.0,0.0,0.0,0.0,0.0,4.137206488202176,18.91577227029667,34.77839862332109,48.39560633506244,44.19205458168774,51.3600812788819,22.33392245596246,63.506109062908926,56.37093906846688,40.93987286889796,10.486553675156452,4.623949052690047,0.0,0.0,0.0,0.0,0.0,0.0,0.0,0.0,0.0,0.0,0.0,0.0,4.81182199406745,18.937887358687508,34.81167656585207,48.81579301448836,59.5679383702243,36.65902361610006,59.89987531597631,60.486241088167674,38.56155307738043,48.17424483126462,31.40447861443697,20.98427020445304,6.028783715231842,0.0,0.0,0.0,0.0,0.0,0.0,0.0,0.0,0.0,0.0,0.0,4.524325844986558,19.20326841937756,36.21651122839386,44.490713584908775,51.61451010532125,54.501687549717495,44.47976135065808,42.2562471778764,52.58799523429699,53.37339680200589,36.116888020690375,23.550673557237417,9.21440954295968,0.0663452651725136,0.0,0.0,0.0,0.0,0.0,0.0,0.0,0.0,0.0,0.0,4.657016375331585,18.99328038960932,35.608030367811665,49.811393231854936,60.04372870046148,66.17192500350737,60.19853431919733,67.74272813892517,62.38877054944803,53.73840107039943,40.89564269211628,24.94455598552851,8.462285917781756,0.0,0.0,0.0,0.0,0.0,0.0,0.0,0.0,0.0,0.0,0.0,4.579508256018934,18.91577227029667,31.116982465356084,42.942236157771255,40.0106179167039,16.459944359466483,10.88483588608097,26.802855270027205,52.69857067625118,38.61694610830223,31.780645736970655,24.77858751265251,6.814185282940744,0.0,0.0,0.0,0.0,0.0,0.0,0.0,0.0,0.0,0.0,0.0,3.937960072795198,13.32950094277102,36.2495785510354,20.619265936059495,48.88234889955031,48.59464213057998,11.437923715741352,16.63707568648262,31.747578414329123,30.818323462135055,24.59050395138567,13.705668065304698,2.6769787947385666,0.0,0.0,0.0,0.0,0.0,0.0,0.0,0.0,0.0,0.0,0.0,2.024267757374694,14.09278742208908,5.110480997288479,13.716620299555402,16.459944359466483,31.227557907310267,32.62144033560137,36.21651122839386,38.27405692829954,38.694243607725454,4.867215024989264,12.24544037184109,7.62170193904048,0.0,0.0,0.0,0.0,0.0,0.0,0.0,0.0,0.0,0.0,0.0,1.482342781854448,11.205609977692838,16.913619601312814,28.22980502095984,64.5568916913079,54.247258723278144,70.72931817113546,46.71422775769046,29.325028446029904,51.26066869106784,41.681044259825185,25.265330077140376,8.805175097784462,0.0,0.0,0.0,0.0,0.0,0.0,0.0,0.0,0.0,0.0,0.0,3.705646334746683,19.358284658002862,37.73192133288985,54.29148890005981,65.30922593637526,28.716547585447707,59.65660934367708,70.22046051825676,64.5568916913079,55.8068990045558,42.51067600431576,19.280776538690215,8.075166560997376,0.0,0.0,0.0,0.0,0.0,0.0,0.0,0.0,0.0,0.0,0.0,4.02642042635855,19.048462800641698,36.53728532000573,51.02835495301933,61.182971682423776,67.31137860535911,48.351376158280765,68.36216123375807,42.36682261983059,54.37994925362317,41.01738098821061,24.855885012075724,8.960191336409764,0.0,0.0,0.0,0.0,0.0,0.0,0.0,0.0,0.0,0.0,0.0,4.247781930156366,18.53960514776299,30.209842601552857,45.38669059457187,53.47302000970937,59.76718478563127,67.80907340409767,66.17192500350737,30.45331919374151,39.800419267046216,40.298324685674224,24.4466505669005,7.798622646167185,0.0,0.0,0.0,0.0,0.0,0.0,0.0,0.0,0.0,0.0,0.0,4.0929763114205,18.22999391029126,34.87802183102458,49.225238079553016,59.51275595919193,65.62978940809768,67.74272813892517,67.18942968937534,62.00165119266365,53.35128171361506,40.64121386567693,24.524158686213156,8.70576250997041,0.0,0.0,0.0,0.0,0.0,0.0,0.0,0.0,0.0,0.0,0.0,3.6504639237143066,18.362684440636286,35.995149724596054,50.68525515312719,45.242837210086705,24.402420390118827,70.59662764079043,68.17428829238067,65.48614664350195,56.43749495352884,42.997418568803624,25.37590551909457,8.108233883638913,0.0,0.0,0.0,0.0,0.0,0.0,0.0,0.0,0.0,0.0,0.0,3.2854596553207633,18.285176321323636,33.57259975629683,35.09938333482239,16.36053177165243,41.74738952499769,60.05468093471216,54.391112107763306,44.98840838364735,44.756305265488265,30.442156339601375,20.58598799352852,8.0309363842157,0.0,0.0,0.0,0.0,0.0,0.0,0.0,0.0,0.0,0.0,0.0,3.064098151522948,14.955697109110632,30.962176846620217,46.4597989312511,51.30489886784952,59.86659737344534,69.42410671629716,58.1631037076825,53.56148036327273,49.52389708277404,40.58582083475512,21.194468854110717,7.632654173291181,0.0,0.0,0.0,0.0,0.0,0.0,0.0,0.0,0.0,0.0,0.0,3.174673593477137,18.21883105615112,36.29401934770651,50.939683979566546,61.28259489012727,67.35560878214078,48.53945971954761,8.794222863533761,30.386973928568995,52.012792316245765,42.897795361100144,22.223136394118836,7.84285282294886,0.0,0.0,0.0,0.0,0.0,0.0,0.0,0.0,0.0,0.0,0.0,3.550840716010818,14.424724367841089,29.90023136408112,39.24733143738584,53.95955195430782,34.14780267434806,28.207689932569,39.95522488578209,44.31379287778207,37.73192133288985,25.077246515873536,11.327348273787162,4.590671110159072,0.0,0.0,0.0,0.0,0.0,0.0,0.0,0.0,0.0,0.0,0.0,1.7477238425445023,12.411408844717092,13.62815994599205,14.369331336919274,41.33815507982248,35.265141187808965,36.05054275551785,54.1697506039655,50.99507701048835,48.61675721897082,28.672317408666036,11.980059311151036,7.820737734558022,0.0,0.0,0.0,0.0,0.0,0.0,0.0,0.0,0.0,0.0,0.0,3.2964118895714636,17.83171169936674,26.22765235197598,26.183422175194305,61.99069895841295,50.7296959497983,50.38659614990616,68.86006665238608,63.2074500596879,54.523802638108336,28.89346829257441,18.351521586496148,2.5442882643935394,0.0,0.0,0.0,0.0,0.0,0.0,0.0,0.0,0.0,0.0,0.0,3.23006662439895,17.84266393361744,35.2982085104505,49.9442943820894,60.33143546943179,66.3490563305235,68.4948517641031,66.93521148282542,24.723194481730697,54.18091345810563,40.28716183153409,24.070483444366825,7.809574880417884,0.0,0.0,0.0,0.0,0.0,0.0,0.0,0.0,0.0,0.0,0.0,2.986800652099733,17.654790992240034,35.33148645298147,49.844671174385915,60.07679602310301,66.14980991511653,52.45530470395196,69.87757133825404,61.725107277833466,53.22954341752073,40.49736048119176,24.03741612172529,6.725514309487955,0.0,0.0,0.0,0.0,0.0,0.0,0.0,0.0,0.0,0.0,0.0,2.787554236692756,13.915866714962377,35.243026099418124,49.96640947048024,60.53047126494934,66.52597703765021,68.64986800272838,67.09001710156129,61.86896066231862,39.40234767601114,40.15447130118906,23.495280526315604,7.688047204212995,0.0,0.0,0.0,0.0,0.0,0.0,0.0,0.0,0.0,0.0,0.0,1.670426343121288,9.358262927444846,30.15466019052048,28.373658405445003,43.53934354432388,54.12552042718382,23.075093846889683,21.17235376571988,27.278434980374932,46.80268811125381,41.22736901797885,23.948955768161937,7.831689968808721,0.0,0.0,0.0,0.0,0.0,0.0,0.0,0.0,0.0,0.0,0.0,2.8981296786469453,17.25650878131552,35.25418895355826,50.39775900404629,60.53026064505991,53.008392533612344,69.87757133825404,48.17424483126462,36.968634853571785,43.395700779728145,40.47524539280093,23.606066588159223,6.880530548113257,0.0,0.0,0.0,0.0,0.0,0.0,0.0,0.0,0.0,0.0,0.0,2.9202447670377834,17.245345927175382,35.33148645298147,50.176608120137914,60.65199894115423,51.769315724057115,51.45970448658538,32.754130865946394,22.875847431482704,27.223252569342556,35.364764395512445,23.22989946562555,7.455733466164479,0.0,0.0,0.0,0.0,0.0,0.0,0.0,0.0,0.0,0.0,0.0,2.986800652099733,17.
...